data_image0
_chemical_formula_structural       Cr2I6
_chemical_formula_sum              "Cr2 I6"
_cell_length_a       6.867
_cell_length_b       6.867
_cell_length_c       33.12818553333333
_cell_angle_alpha    90.0
_cell_angle_beta     90.0
_cell_angle_gamma    120.00000000000001

_space_group_name_H-M_alt    "P 1"
_space_group_IT_number       1

loop_
  _space_group_symop_operation_xyz
  'x, y, z'

loop_
  _atom_site_type_symbol
  _atom_site_label
  _atom_site_symmetry_multiplicity
  _atom_site_fract_x
  _atom_site_fract_y
  _atom_site_fract_z
  _atom_site_occupancy
  Cr  Cr1       1.0  0.0  0.0  0.4997947245457651  1.0000
  Cr  Cr2       1.0  0.3333333333333334  0.6666666666666667  0.4997947245457651  1.0000
  I   I1        1.0  0.3160216666666669  0.9826883333333336  0.5470080790197941  1.0000
  I   I2        1.0  0.6666666666666669  0.6839783333333334  0.5470080790197941  1.0000
  I   I3        1.0  0.017311666666666562  0.33333333333333337  0.5470080790197941  1.0000
  I   I4        1.0  0.017311666666666684  0.6839783333333334  0.45258137007173616  1.0000
  I   I5        1.0  0.6666666666666669  0.9826883333333336  0.45258137007173616  1.0000
  I   I6        1.0  0.3160216666666668  0.33333333333333337  0.45258137007173616  1.0000
